data/state_estimation/SE_PT2050_Su/state_estimation_PT2050_Su_t5.csv
bus,vm_pu,va_degree,p_mw,q_mvar
1,1.025584,0.117339,-0.463311,-34.586309
2,1.026808,0.178777,-0.561456,-40.960696
3,1.038817,0.159576,-0.522664,6.190614
4,1.032289,-0.085974,-0.491417,-62.297607
5,1.013353,0.074383,-328.665432,52.274482
6,1.013128,0.135244,-0.431790,-5.598891
7,1.033787,-0.077099,-0.488684,33.335247
8,0.998186,0.058342,-0.561358,-0.013779
9,1.023240,-0.086984,-0.421775,-0.086763
10,1.026087,-0.160146,-328.697721,-0.086525
11,1.016298,-0.101158,-0.885408,-0.014910
12,1.014514,-0.113099,-0.486006,0.014716
13,1.021007,-0.090276,-1.687642,-0.054948
14,1.024648,-0.084722,-0.487721,-0.048928
15,1.036036,-0.083382,-0.447657,-0.025967
16,0.999456,0.186908,-0.517024,0.033631
17,1.012038,0.077403,-0.414590,-0.029463
18,1.001257,-0.006934,-0.491420,-0.039838
19,1.005185,-0.189635,-0.427607,-0.037242
20,1.014720,-0.101299,-0.444471,0.020089
21,1.010560,0.073192,-0.397934,-0.040420
22,1.029334,-0.090994,100.059979,-21.221694
23,1.007796,-0.129238,-0.407289,0.051124
24,1.014621,0.168839,-328.702656,0.035568
25,0.997667,0.010580,-328.659235,-0.002210
26,1.031480,-0.126806,-0.898558,0.305722
27,1.030746,-0.084628,-0.858665,0.309630
28,1.030812,-0.088385,-0.821101,1.008206
29,1.023760,-0.090120,-0.426402,-0.026576
30,1.013102,0.071990,30.527884,15.538236
31,1.011554,0.204709,-0.430847,-0.039172
32,1.010638,0.062258,-0.568678,0.043520
33,1.014230,0.074737,-0.464623,0.008401
34,1.022770,-0.089858,-0.446449,0.055979
35,1.004451,0.110919,-0.478032,-0.065906
36,1.007256,0.059137,-0.409668,0.031002
37,1.018955,-0.053016,-0.440660,0.046269
38,1.007970,0.103910,-0.483280,0.026239
39,1.011989,0.125332,-0.438859,-0.030600
40,1.014905,0.135629,-0.415172,0.011769
41,1.008250,0.094032,-0.479567,0.100627
42,1.012819,0.184394,-0.482205,-0.025898
43,1.018019,-0.059674,-0.466850,0.014155
44,1.007032,0.102641,-0.494707,0.008352
45,1.015242,0.020596,-0.496427,-0.030320
46,1.016595,-0.018718,-0.471552,0.029647
47,1.010526,0.163132,-0.477363,-0.024918
48,1.005074,0.100784,-0.457845,0.041477
49,1.007791,0.110852,-0.447802,-0.089298
50,1.017704,-0.055618,-328.646243,0.002337
51,1.011367,0.144789,-0.467290,-0.000293
52,1.015359,0.073420,-0.502900,-0.010854
53,1.006612,0.089150,-0.529484,-0.015446
54,1.012786,0.202920,-0.645861,-0.009220
55,1.017843,-0.062567,-0.531741,-0.005902
56,1.019574,-0.060644,-0.501896,0.064558
57,1.008488,0.111717,-0.414232,0.020890
58,1.017828,-0.062037,-0.365149,0.022293
59,1.019555,-0.057725,-0.464784,-0.032239
60,1.008844,0.123359,-0.471432,0.027968
61,1.009509,0.164843,89.540956,-31.500693
62,1.015785,0.232710,-0.496608,-0.032790
63,1.014894,0.192962,-0.474962,-0.039944
64,1.009547,0.002091,-0.551710,0.084584
65,1.016242,0.200848,-0.431653,0.064242
66,1.009021,0.130641,-0.444547,0.029451
67,1.008887,0.122606,-0.982164,0.173944
68,1.007939,0.090272,-0.591653,-0.050159
69,1.008978,0.111848,-0.469344,-0.031974
70,1.011167,0.127320,-0.476647,0.102426
71,1.013073,0.125151,-0.419478,-0.027657
72,1.008641,0.219695,-0.564538,0.018149
73,1.015050,0.164349,-0.480534,-0.002924
74,1.014956,0.010419,-0.517655,-0.081180
75,1.008900,0.115505,-328.629748,0.007684
76,1.018123,-0.061670,-0.466217,-0.017732
77,1.012698,0.190843,-0.543875,0.040935
78,1.009755,0.167979,-0.565936,0.049809
79,1.014512,0.130997,-0.470671,-0.023101
80,1.035241,-0.081246,-0.407022,-0.027369
81,1.024642,0.098161,-0.508131,0.075450
82,1.038206,-0.014902,-0.518089,0.028986
83,1.036294,0.091287,-0.520543,0.079026
84,1.038899,-0.040593,-0.498820,0.009445
85,1.030047,0.059439,-0.389536,-0.018275
86,1.038845,-0.044448,-0.447842,0.041693
87,1.040712,-0.035696,-0.504228,-0.034526
88,1.023358,0.102836,-0.497034,-0.019959
89,1.037553,-0.023055,-0.484317,0.047106
90,1.026037,0.143654,-0.412892,0.020169
91,1.023692,0.102037,-0.441037,0.000322
92,1.021462,0.097974,-0.481231,0.035753
93,1.023464,0.105017,-0.483424,-0.030613
94,1.024952,0.100754,-0.455009,-0.114919
95,1.034509,0.099810,-0.473428,-0.008670
96,1.026487,0.116129,-0.383696,0.047874
97,1.039112,-0.041070,-0.525855,-0.046835
98,1.037544,0.160138,-0.462964,-0.015773
99,1.040442,0.155493,-0.403357,-0.043132
100,1.042283,-0.000065,-328.558383,-0.057914
101,1.027701,0.109512,-0.418700,-0.039652
102,1.025493,-0.064869,-0.478922,-0.052783
103,1.029943,0.136264,-0.447551,-0.025708
104,1.021234,0.102154,-0.474625,0.091228
105,1.038082,-0.085170,-0.433571,0.062281
106,1.028252,0.178036,-0.421670,0.070944
107,1.026827,-0.076856,-0.405692,-0.005398
108,1.003809,0.055415,-5.636168,5.066230
109,1.006411,-0.009233,-225.071733,-28.510101
110,1.018408,-0.108053,-180.334030,-7.652431
111,1.012024,0.060712,-129.303528,3.363511
112,1.014726,-0.117119,-126.799106,-26.070571
113,1.025157,-0.231483,-153.530762,17.921097
114,1.010736,0.123489,-5.691430,-16.481138
115,1.008315,0.125235,-28.327309,45.664193
116,1.005566,0.023055,-319.269314,-17.120933
117,1.010321,-0.125218,-50.697298,-9.589194
118,1.009155,0.192792,23.773602,-14.681578
119,1.027238,-0.061822,-166.817582,-51.344089
120,1.006421,0.056302,-193.692259,7.448355
121,1.011357,-0.155352,-169.513182,-22.861904
122,1.024464,0.061536,-100.252192,-37.370541
123,1.019384,-0.125309,-152.349295,-32.278985
124,1.014628,-0.019278,-130.718001,1.988339
125,1.012493,-0.053451,-121.518315,-23.899244
126,1.028247,-0.108189,-141.632681,3.259252
127,1.006141,0.251884,286.825169,8.473338
128,1.016656,0.080250,-45.105235,-33.760193
129,1.008612,0.043950,-180.706566,-16.579385
130,1.004567,0.056638,-241.625287,-15.608157
131,1.024114,-0.080150,-192.899724,-23.044703
132,1.008511,0.080714,18.918233,0.034058
133,1.001567,-0.057239,-178.664297,64.836973
134,1.007203,0.035196,-163.524343,5.115619
135,1.022669,-0.101194,-176.864387,-10.993524
136,1.019580,-0.116472,-200.512668,-32.180474
137,1.020240,0.042674,-127.017456,10.906918
138,1.007347,0.096167,-93.744189,-5.312626
139,1.017257,-0.117866,-191.274012,-4.767630
140,1.012131,-0.235868,-84.689376,-5.668227
141,1.013222,-0.145546,-95.429857,-17.817971
142,1.011890,0.018021,-114.280909,-1.251178
143,1.009427,-0.100673,-80.008147,-6.838252
144,1.005662,0.091606,-62.772170,7.135604
145,1.011959,0.068191,-242.104479,20.551781
146,1.014341,-0.088485,2.778024,-1.853701
147,1.019407,-0.086948,-50.062955,-13.092624
148,1.002164,0.114824,-0.518393,-0.019232
149,1.008275,-0.189520,-199.939210,-22.197839
150,1.011569,0.162517,-9.078271,0.383520
151,1.004536,-0.047238,-182.489830,-11.186122
152,1.015026,0.209760,-66.353522,6.213074
153,1.011042,0.185818,-6.055911,10.212927
154,1.007442,-0.047061,-108.934035,-10.049720
155,1.009975,0.287493,251.915959,5.411907
156,1.007321,0.118836,-23.029527,14.456219
157,1.009018,0.031899,-108.036450,8.240866
158,1.020328,0.095397,-32.332912,1.498239
159,1.026212,-0.063469,57.633110,21.492568
160,1.017667,0.212253,168.262936,3.623958
161,1.010730,0.219051,190.894770,19.258395
162,1.011311,0.218441,23.450824,12.022407
163,1.010255,0.067902,-16.323735,18.851776
164,1.024840,-0.099923,-32.528485,9.021745
165,1.002045,0.181471,55.066202,3.115359
166,1.003565,0.081928,144.299372,-27.162562
167,1.002990,0.105891,-30.878890,49.460471
168,1.020904,-0.075632,-124.881218,-42.818440
169,1.023766,-0.031589,123.107068,30.654073
170,1.008563,0.155548,-25.975911,15.217012
171,1.011018,0.076125,-46.218545,-4.692250
172,1.003112,0.118949,-28.435470,16.264753
173,1.014654,0.078781,71.521128,-11.296864
174,1.014871,0.076924,20.523867,-3.003239
175,1.003916,0.096486,53.497204,-15.689516
176,1.003753,0.084978,21.631933,9.659005
177,1.013113,0.075346,-0.509281,-0.312314
178,1.002578,0.196911,28.557560,-2.071188
179,1.013405,0.075467,30.718376,-9.194553
180,1.022723,-0.087733,-0.439871,0.016332
181,1.017900,0.177451,65.559566,3.763683
182,1.014583,0.075842,-0.552304,-4.268802
183,1.039763,-0.037275,294.466150,-2.070319
184,1.013735,0.073846,-0.402346,0.052989
185,1.028130,-0.084246,-0.550015,-0.005424
186,1.014983,-0.137821,-0.506963,0.042597
187,1.008609,0.058790,25.978338,12.333871
188,1.006677,0.059062,26.007508,9.204323
189,1.007773,0.058321,26.120846,9.284250
190,1.004882,0.092842,-0.481287,-0.053680
191,1.012656,0.215498,184.019312,-29.724326
192,1.011366,0.204517,119.512870,-42.058929
193,1.007962,0.114683,-0.409698,-0.032593
194,1.011619,0.164079,119.478835,-28.560593
195,1.011928,0.132417,-0.486430,-2.684247
196,1.015125,0.135740,92.427728,-44.819246
197,1.013041,0.143605,-0.496563,0.020683
198,1.014277,0.134709,-0.554497,-1.740506
199,1.016390,0.073620,-0.516491,-0.083082
200,1.011682,0.202105,-262.790142,39.467989
201,1.013387,0.203622,32.108631,-11.179700
202,1.012395,0.202203,31.960726,-11.211869
203,1.012397,0.202939,121.915683,-23.770878
204,1.017811,-0.060000,-0.574467,-0.007789
205,1.017961,-0.061130,-0.467490,0.078172
206,1.008543,0.123135,34.537885,-5.585654
207,1.008982,0.123482,34.605286,-4.672416
208,1.008640,0.103450,-0.455697,0.044589
209,1.007990,0.105830,-0.452238,-0.082524
210,1.007610,0.102029,-0.519922,-0.058565
211,1.008154,0.108148,-0.526892,0.082015
212,1.017642,0.260819,-0.509620,-0.025558
213,1.018305,-0.053758,-0.562145,0.015997
214,1.017833,-0.053756,-0.454282,0.037270
215,1.018926,-0.054681,-0.466248,-0.034499
216,1.018764,-0.053938,-0.462383,0.038377
217,1.019163,-0.056564,-0.477192,0.017996
218,1.009026,0.129748,100.022366,-31.428354
219,1.016820,-0.063472,-0.455933,0.017792
220,1.010088,0.121361,593.547020,37.306515
221,1.010187,0.121270,-0.549155,-0.105099
222,1.017614,-0.018404,234.745094,115.827412
223,1.012464,0.203967,-0.522162,0.007612
224,1.008481,0.174157,-0.414986,-0.092458
225,1.027987,0.183558,94.986274,-1.450712
226,1.041707,-0.037083,-0.454148,0.052085
227,1.037844,-0.085454,-0.431266,3.959897
228,1.038532,-0.085563,-0.445127,6.554659
229,1.023674,0.101057,-0.349206,32.892119
230,1.024055,0.101465,-0.561233,3.877768
231,1.027878,0.144121,-0.394220,6.325973
232,1.027064,0.116833,156.999719,0.325719
233,1.026555,0.116603,157.122572,0.361272
234,1.039986,-0.030154,294.609797,-12.410595
235,1.040785,-0.030391,294.504382,-12.473980
236,1.040691,-0.029870,294.497296,-12.488237
237,1.040528,0.155285,287.480885,4.425346
238,1.041274,0.156386,287.563961,4.403033
239,1.042582,-0.000597,380.705023,32.865369
240,1.042027,-0.000360,372.085662,115.639056
241,1.035296,0.105113,247.349210,2.279519
242,1.034838,0.104932,247.371614,0.116690
243,1.040853,0.155577,250.603633,5.970966
244,1.039979,0.155235,250.572225,4.362319
245,1.026249,-0.095908,-12.651159,-2.452060
246,1.022321,-0.088458,-6.517224,-0.296634
247,1.014345,-0.138944,-1.019677,0.496824
248,1.012885,0.187228,-0.974991,0.688712
249,1.022557,-0.088500,-4.251429,-0.032595
250,1.035983,-0.093694,-284.002327,37.891506
251,1.013597,0.116622,105.355108,-5.180702
252,1.020103,0.275474,167.120908,-15.326862
253,1.015774,0.269068,113.254560,-10.325908
254,1.017484,0.181579,239.083239,-19.915427
255,1.036041,-0.086365,-39.451413,5.994342
256,1.003788,0.090418,-134.823366,-17.979775
257,1.014897,0.192699,-0.985547,0.924389
258,1.011927,0.136951,-0.977547,1.983102
259,1.016260,0.217084,-1.004391,1.484051
260,0.973792,-0.086514,-147.640203,-56.437720
261,1.012721,0.226343,-1.024295,1.576337
262,1.014437,0.228847,220.958210,-30.066934
263,1.017916,0.273179,123.110152,-20.321076
264,1.008079,0.181333,254.953506,-39.886837
265,1.013034,0.204168,101.220878,-2.857893
266,1.016097,0.260220,129.526382,-5.523142
267,1.008867,0.116702,166.587130,-45.802308
268,1.027695,0.148648,144.753419,9.672011
269,1.007973,0.136646,-0.485499,0.102238
270,1.007577,0.136278,-0.475100,-0.018670
271,1.005964,0.147394,-0.502633,-0.082565
272,1.004061,0.168788,-0.521255,0.031219
273,1.005951,0.059665,29.587113,-7.366573
274,1.005884,0.058192,-0.486738,0.097757
275,1.005797,0.055487,-0.547083,-0.000845
276,1.005944,0.034525,-0.453707,-0.026934
277,1.004969,0.034791,-0.456701,-0.055780
278,1.006190,0.029971,-0.426347,-0.003469
279,1.006403,0.024602,-0.507502,0.036065
280,1.005502,0.057638,-0.515379,0.048740
281,1.005466,0.058238,-0.419097,0.053987
282,1.006079,0.058866,-0.443613,0.023343
283,1.009545,0.080876,-0.380816,-0.003432
284,1.011733,0.070540,-0.501001,0.039052
285,1.010737,0.070356,-0.355142,0.002549
286,1.013055,0.067482,-0.355623,0.018985
287,1.001943,-0.053845,-0.486565,0.031392
288,1.002436,-0.052695,-0.368337,-0.006987
289,1.004993,-0.044553,-0.539532,0.007888
290,1.005152,-0.037333,-0.473097,0.040743
291,1.004808,-0.037146,-0.470850,0.027445
292,1.005060,-0.037062,-0.441179,0.037500
293,1.006667,-0.020993,25.546751,-8.195543
294,1.003437,0.110531,-0.496604,0.056106
295,1.003497,0.107535,-0.549531,-0.016853
296,1.003934,0.105607,-0.426133,0.014420
297,1.003510,0.106339,-0.405729,0.031015
298,1.002494,0.165430,-0.415809,-0.012159
299,1.002767,0.164670,-0.494362,-0.096200
300,1.002739,0.165077,-0.409180,0.012182
301,1.002901,0.150696,-0.464870,0.012834
302,1.002726,0.138533,-0.498956,-0.040022
303,1.001910,0.124808,-0.468393,-0.022639
304,1.002256,0.123973,-0.530364,-0.072998
